@<TRIPOS>MOLECULE
ZINC06827693
    4     3     0     0     0
SMALL
USER_CHARGES

@<TRIPOS>ATOM
      1 C1         -0.0145    1.2208    0.0088 C.2       1 <0>         0.6062
      2 O1          0.0021   -0.0041    0.0020 O.co2     1 <0>        -0.8688
      3 O2          1.0379    1.8477    0.0021 O.co2     1 <0>        -0.8687
      4 O3         -1.0836    1.8188    0.0171 O.co2     1 <0>        -0.8687
@<TRIPOS>BOND
     1    1    2 2
     2    1    3 1
     3    1    4 1
