@<TRIPOS>MOLECULE
ZINC01532525
   27    26     0     0     0
SMALL
USER_CHARGES

@<TRIPOS>ATOM
      1 C1         -0.0187    1.5258    0.0104 C.3       1 <0>        -0.1469
      2 C2          0.0021   -0.0041    0.0020 C.3       1 <0>        -0.1261
      3 C3         -1.4333   -0.5336    0.0129 C.3       1 <0>        -0.0503
      4 H1         -1.9862   -0.1019   -0.8214 H         1 <0>         0.1364
      5 C4         -1.4159   -2.0348   -0.1192 C.2       1 <0>         0.4836
      6 O1         -1.3670   -2.7340    0.8784 O.co2     1 <0>        -0.6613
      7 O2         -1.4508   -2.5500   -1.2236 O.co2     1 <0>        -0.6291
      8 N1         -2.0833   -0.1607    1.2764 N.4       1 <0>        -0.6162
      9 C5          1.4167    2.0553   -0.0004 C.3       1 <0>         0.0932
     10 N2          1.3968    3.5202    0.0076 N.pl3     1 <0>        -0.6984
     11 C6          2.5720    4.2202    0.0002 C.cat     1 <0>         0.7431
     12 N3          2.5540    5.5520    0.0075 N.pl3     1 <0>        -0.7933
     13 N4          3.7344    3.5700   -0.0144 N.pl3     1 <0>        -0.7910
     14 H2         -0.5459    1.8868   -0.8726 H         1 <0>         0.0948
     15 H3         -0.5289    1.8773    0.9072 H         1 <0>         0.0730
     16 H4          0.5123   -0.3556   -0.8948 H         1 <0>         0.1154
     17 H5          0.5293   -0.3651    0.8851 H         1 <0>         0.0934
     18 H6         -2.0949    0.8443    1.3648 H         1 <0>         0.4088
     19 H7         -3.0299   -0.5100    1.2835 H         1 <0>         0.4368
     20 H8          1.9439    1.6943    0.8826 H         1 <0>         0.0970
     21 H9          1.9269    1.7038   -0.8972 H         1 <0>         0.1003
     22 H10         0.5503    3.9937    0.0183 H         1 <0>         0.4350
     23 H11         1.7074    6.0255    0.0181 H         1 <0>         0.4411
     24 H12         3.7475    2.6001   -0.0198 H         1 <0>         0.4408
     25 H13         4.5677    4.0664   -0.0197 H         1 <0>         0.4423
     26 H14         3.3873    6.0484    0.0022 H         1 <0>         0.4426
     27 H15        -1.5715   -0.5604    2.0487 H         1 <0>         0.4348
@<TRIPOS>BOND
     1    1    2 1
     2    1    9 1
     3    1   14 1
     4    1   15 1
     5    2    3 1
     6    2   16 1
     7    2   17 1
     8    3    4 1
     9    3    5 1
    10    3    8 1
    11    5    6 2
    12    5    7 1
    13    8   18 1
    14    8   19 1
    15    8   27 1
    16    9   10 1
    17    9   20 1
    18    9   21 1
    19   10   11 1
    20   10   22 1
    21   11   12 2
    22   11   13 1
    23   12   23 1
    24   12   26 1
    25   13   24 1
    26   13   25 1
