@<TRIPOS>MOLECULE
ZINC00036634
   18    18     0     0     0
SMALL
USER_CHARGES

@<TRIPOS>ATOM
      1 C1         -0.0167    1.3793    0.0096 C.ar      1 <0>        -0.0493
      2 C2          1.1684    2.0931    0.0021 C.ar      1 <0>        -0.1131
      3 C3          2.3774    1.4284   -0.0134 C.ar      1 <0>        -0.0592
      4 C4          2.4031    0.0335   -0.0211 C.ar      1 <0>        -0.1590
      5 C5          1.2045   -0.6805   -0.0130 C.ar      1 <0>        -0.0593
      6 C6          0.0021   -0.0041    0.0020 C.ar      1 <0>        -0.1131
      7 C7          3.6962   -0.6857   -0.0382 C.cat     1 <0>         0.6008
      8 N1          3.7175   -2.0169   -0.0455 N.pl3     1 <0>        -0.7620
      9 N2          4.8384   -0.0015   -0.0463 N.pl3     1 <0>        -0.7620
     10 H1         -0.9604    1.9041    0.0260 H         1 <0>         0.1474
     11 H2          1.1472    3.1728    0.0081 H         1 <0>         0.1491
     12 H3          3.3019    1.9867   -0.0199 H         1 <0>         0.1374
     13 H4          1.2179   -1.7604   -0.0192 H         1 <0>         0.1374
     14 H5         -0.9265   -0.5556    0.0079 H         1 <0>         0.1491
     15 H6          2.8854   -2.5154   -0.0396 H         1 <0>         0.4443
     16 H7          4.8229    0.9683   -0.0410 H         1 <0>         0.4443
     17 H8          5.6860   -0.4730   -0.0576 H         1 <0>         0.4336
     18 H9          4.5652   -2.4884   -0.0567 H         1 <0>         0.4336
@<TRIPOS>BOND
     1    1    6 ar
     2    1    2 ar
     3    1   10 1
     4    2    3 ar
     5    2   11 1
     6    3    4 ar
     7    3   12 1
     8    4    5 ar
     9    4    7 1
    10    5    6 ar
    11    5   13 1
    12    6   14 1
    13    7    8 2
    14    7    9 1
    15    8   15 1
    16    8   18 1
    17    9   16 1
    18    9   17 1
