@<TRIPOS>MOLECULE
ethanol.pdb
 9 8 0 0 0
SMALL
GASTEIGER

@<TRIPOS>ATOM
      1  C1        -7.4820   -6.6560   25.2530 C.3   1267  EOH1267     0.0414
      2  C2        -6.2430   -6.7890   26.1140 C.3   1267  EOH1267    -0.0418
      3  O         -7.6790   -5.3740   24.5840 O.3   1267  EOH1267    -0.3953
      4 H          -8.3323   -6.8294   25.8789 H     1267  EOH1267     0.0554
      5 H          -7.3554   -7.3686   24.4649 H     1267  EOH1267     0.0554
      6 H          -6.3003   -6.0996   26.9303 H     1267  EOH1267     0.0252
      7 H          -5.3753   -6.5741   25.5260 H     1267  EOH1267     0.0252
      8 H          -6.1782   -7.7872   26.4939 H     1267  EOH1267     0.0252
      9 H          -7.8011   -4.6779   25.2485 H     1267  EOH1267     0.2094
@<TRIPOS>BOND
     1     1     2    1
     2     1     3    1
     3     1     4    1
     4     1     5    1
     5     2     6    1
     6     2     7    1
     7     2     8    1
     8     3     9    1
